CM --- NEC2 Input File created or edited by xnec2c 3.6.1-beta ---
CE --- End Comments ---
GW     1    15  1,00000E+00  2,00000E+00  3,00000E+00 -1,00000E+00 -2,00000E+00 -3,00000E+00  1,50000E-02
GE     0     0   0,00000E+00  0,00000E+00  0,00000E+00  0,00000E+00  0,00000E+00  0,00000E+00  0,00000E+00
EX     0     1     8      0  1,00000E+00  0,00000E+00  0,00000E+00  0,00000E+00  0,00000E+00  0,00000E+00
FR     0    10     0     0  1,30000E+01  2,22222E-01  1,50000E+01  0,00000E+00  0,00000E+00  0,00000E+00
NH     0     0     0      0  0,00000E+00  0,00000E+00  0,00000E+00  0,00000E+00  0,00000E+00  0,00000E+00
NE     0    10     1     10 -1,35000E+00  0,00000E+00 -1,35000E+00  3,00000E-01  0,00000E+00  3,00000E-01
RP     0    19    37   1000  0,00000E+00  0,00000E+00  1,00000E+01  1,00000E+01  0,00000E+00  0,00000E+00
EN     0     0     0      0  0,00000E+00  0,00000E+00  0,00000E+00  0,00000E+00  0,00000E+00  0,00000E+00
